Program Version,EnergyPlus, Version 8.5.0-c87e61b44b, YMD=2023.12.19 12:32,IDD_Version 8.5.0
   ** Warning ** Version: in IDF="8.4" not the same as expected="8.5"
   ************* Beginning Zone Sizing Calculations
   ** Warning ** Calculated design heating load for zone=ZONE-VAV-129 is zero.
   **   ~~~   ** Check Sizing:Zone and ZoneControl:Thermostat inputs.
   ** Warning ** Calculated design heating load for zone=ZONE-VAV-123B is zero.
   **   ~~~   ** Check Sizing:Zone and ZoneControl:Thermostat inputs.
   ** Warning ** Calculated design heating load for zone=ZONE-AHU-005 is zero.
   **   ~~~   ** Check Sizing:Zone and ZoneControl:Thermostat inputs.
   ** Warning ** Calculated design heating load for zone=ZONE-VAV-118 is zero.
   **   ~~~   ** Check Sizing:Zone and ZoneControl:Thermostat inputs.
   ** Warning ** Calculated design heating load for zone=ZONE-VAV-120 is zero.
   **   ~~~   ** Check Sizing:Zone and ZoneControl:Thermostat inputs.
   ** Warning ** Calculated design heating load for zone=ZONE-VAV-119 is zero.
   **   ~~~   ** Check Sizing:Zone and ZoneControl:Thermostat inputs.
   ** Warning ** Calculated design heating load for zone=ZONE-AHU-004 is zero.
   **   ~~~   ** Check Sizing:Zone and ZoneControl:Thermostat inputs.
   ** Warning ** Calculated design heating load for zone=ZONE-FCU-001 is zero.
   **   ~~~   ** Check Sizing:Zone and ZoneControl:Thermostat inputs.
   ** Warning ** Calculated design heating load for zone=ZONE-VAV-112 is zero.
   **   ~~~   ** Check Sizing:Zone and ZoneControl:Thermostat inputs.
   ** Warning ** Calculated design heating load for zone=ZONE-VAV-133 is zero.
   **   ~~~   ** Check Sizing:Zone and ZoneControl:Thermostat inputs.
   ************* Beginning System Sizing Calculations
   ** Warning ** SetUpSysSizingArrays: Sizing for System (HVACAirLoop)="AHU-005" will use Sizing:System specifications listed for System="AHU-001".
   ************* Beginning Plant Sizing Calculations
   ** Warning ** SizeWaterCoil: Potential issue with equipment sizing for Coil:Heating:Water ZONE-VAV-129 VAV BOX REHEAT COIL
   **   ~~~   ** ...Rated Total Heating Capacity = 0.00 [W]
   **   ~~~   ** ...Air flow rate used for sizing = 0.00000 [m3/s]
   **   ~~~   ** ...Plant loop temperature difference = 11.00 [C]
   ** Warning ** The design coil load is zero for Coil:Heating:Water ZONE-VAV-129 VAV BOX REHEAT COIL
   **   ~~~   ** The autosize value for maximum water flow rate is zero
   **   ~~~   ** To change this, input a value for UA, change the heating design day, or raise the
   **   ~~~   **   system heating design supply air temperature. Also check to make sure the Preheat
   **   ~~~   **   Design Temperature is not the same as the Central Heating Design Supply Air Temperature. 
   ** Warning ** SizeWaterCoil: Potential issue with equipment sizing for Coil:Heating:Water ZONE-VAV-123A VAV BOX REHEAT COIL
   **   ~~~   ** ...Rated Total Heating Capacity = 0.00 [W]
   **   ~~~   ** ...Air flow rate used for sizing = 0.00000 [m3/s]
   **   ~~~   ** ...Plant loop temperature difference = 11.00 [C]
   ** Warning ** The design coil load is zero for Coil:Heating:Water ZONE-VAV-123A VAV BOX REHEAT COIL
   **   ~~~   ** The autosize value for maximum water flow rate is zero
   **   ~~~   ** To change this, input a value for UA, change the heating design day, or raise the
   **   ~~~   **   system heating design supply air temperature. Also check to make sure the Preheat
   **   ~~~   **   Design Temperature is not the same as the Central Heating Design Supply Air Temperature. 
   ** Warning ** SizeWaterCoil: Potential issue with equipment sizing for Coil:Heating:Water ZONE-VAV-123B VAV BOX REHEAT COIL
   **   ~~~   ** ...Rated Total Heating Capacity = 0.00 [W]
   **   ~~~   ** ...Air flow rate used for sizing = 0.00000 [m3/s]
   **   ~~~   ** ...Plant loop temperature difference = 11.00 [C]
   ** Warning ** The design coil load is zero for Coil:Heating:Water ZONE-VAV-123B VAV BOX REHEAT COIL
   **   ~~~   ** The autosize value for maximum water flow rate is zero
   **   ~~~   ** To change this, input a value for UA, change the heating design day, or raise the
   **   ~~~   **   system heating design supply air temperature. Also check to make sure the Preheat
   **   ~~~   **   Design Temperature is not the same as the Central Heating Design Supply Air Temperature. 
   ** Warning ** SizeWaterCoil: Potential issue with equipment sizing for Coil:Heating:Water ZONE-VAV-118 VAV BOX REHEAT COIL
   **   ~~~   ** ...Rated Total Heating Capacity = 0.00 [W]
   **   ~~~   ** ...Air flow rate used for sizing = 0.00000 [m3/s]
   **   ~~~   ** ...Plant loop temperature difference = 11.00 [C]
   ** Warning ** The design coil load is zero for Coil:Heating:Water ZONE-VAV-118 VAV BOX REHEAT COIL
   **   ~~~   ** The autosize value for maximum water flow rate is zero
   **   ~~~   ** To change this, input a value for UA, change the heating design day, or raise the
   **   ~~~   **   system heating design supply air temperature. Also check to make sure the Preheat
   **   ~~~   **   Design Temperature is not the same as the Central Heating Design Supply Air Temperature. 
   ** Warning ** SizeWaterCoil: Potential issue with equipment sizing for Coil:Heating:Water ZONE-VAV-120 VAV BOX REHEAT COIL
   **   ~~~   ** ...Rated Total Heating Capacity = 0.00 [W]
   **   ~~~   ** ...Air flow rate used for sizing = 0.00000 [m3/s]
   **   ~~~   ** ...Plant loop temperature difference = 11.00 [C]
   ** Warning ** The design coil load is zero for Coil:Heating:Water ZONE-VAV-120 VAV BOX REHEAT COIL
   **   ~~~   ** The autosize value for maximum water flow rate is zero
   **   ~~~   ** To change this, input a value for UA, change the heating design day, or raise the
   **   ~~~   **   system heating design supply air temperature. Also check to make sure the Preheat
   **   ~~~   **   Design Temperature is not the same as the Central Heating Design Supply Air Temperature. 
   ** Warning ** SizeWaterCoil: Potential issue with equipment sizing for Coil:Heating:Water ZONE-VAV-119 VAV BOX REHEAT COIL
   **   ~~~   ** ...Rated Total Heating Capacity = 0.00 [W]
   **   ~~~   ** ...Air flow rate used for sizing = 0.00000 [m3/s]
   **   ~~~   ** ...Plant loop temperature difference = 11.00 [C]
   ** Warning ** The design coil load is zero for Coil:Heating:Water ZONE-VAV-119 VAV BOX REHEAT COIL
   **   ~~~   ** The autosize value for maximum water flow rate is zero
   **   ~~~   ** To change this, input a value for UA, change the heating design day, or raise the
   **   ~~~   **   system heating design supply air temperature. Also check to make sure the Preheat
   **   ~~~   **   Design Temperature is not the same as the Central Heating Design Supply Air Temperature. 
   ** Warning ** SizeWaterCoil: Potential issue with equipment sizing for Coil:Heating:Water ZONE-VAV-112 VAV BOX REHEAT COIL
   **   ~~~   ** ...Rated Total Heating Capacity = 0.00 [W]
   **   ~~~   ** ...Air flow rate used for sizing = 0.00000 [m3/s]
   **   ~~~   ** ...Plant loop temperature difference = 11.00 [C]
   ** Warning ** The design coil load is zero for Coil:Heating:Water ZONE-VAV-112 VAV BOX REHEAT COIL
   **   ~~~   ** The autosize value for maximum water flow rate is zero
   **   ~~~   ** To change this, input a value for UA, change the heating design day, or raise the
   **   ~~~   **   system heating design supply air temperature. Also check to make sure the Preheat
   **   ~~~   **   Design Temperature is not the same as the Central Heating Design Supply Air Temperature. 
   ** Warning ** SizeWaterCoil: Potential issue with equipment sizing for Coil:Heating:Water ZONE-VAV-133 VAV BOX REHEAT COIL
   **   ~~~   ** ...Rated Total Heating Capacity = 0.00 [W]
   **   ~~~   ** ...Air flow rate used for sizing = 0.00000 [m3/s]
   **   ~~~   ** ...Plant loop temperature difference = 11.00 [C]
   ** Warning ** The design coil load is zero for Coil:Heating:Water ZONE-VAV-133 VAV BOX REHEAT COIL
   **   ~~~   ** The autosize value for maximum water flow rate is zero
   **   ~~~   ** To change this, input a value for UA, change the heating design day, or raise the
   **   ~~~   **   system heating design supply air temperature. Also check to make sure the Preheat
   **   ~~~   **   Design Temperature is not the same as the Central Heating Design Supply Air Temperature. 
   ************* SizeWaterCoil: Potential issue with equipment sizing for Coil:Cooling:Water AHU-001 COOLC
